REMARK  Name = 445858
REMARK                            x       y       z     vdW  Elec       q    Type
REMARK                         _______ _______ _______ _____ _____    ______ ____
ROOT
ATOM      3  C   LIG    1       -1.925   0.501  -0.275  0.00  0.00    +0.162 A 
ATOM      4  C   LIG    1       -2.624  -0.676  -0.005  0.00  0.00    +0.158 A 
ATOM      5  C   LIG    1       -1.928  -1.859   0.241  0.00  0.00    +0.050 A 
ATOM      6  C   LIG    1       -0.533  -1.866   0.217  0.00  0.00    +0.012 A 
ATOM      7  C   LIG    1        0.165  -0.690  -0.053  0.00  0.00    -0.021 A 
ATOM     16  C   LIG    1       -0.530   0.494  -0.299  0.00  0.00    +0.057 A 
ENDROOT
BRANCH   3   1
ATOM      1  O   LIG    1       -2.594   1.663  -0.518  0.00  0.00    -0.491 OA
ATOM      2  C   LIG    1       -2.890   2.487   0.608  0.00  0.00    +0.277 C 
ENDBRANCH   3   1
BRANCH   7   8
ATOM      8  C   LIG    1        1.619  -0.697  -0.077  0.00  0.00    +0.015 C 
ATOM      9  C   LIG    1        2.409   0.392   0.056  0.00  0.00    +0.092 C 
BRANCH   9  10
ATOM     10  C   LIG    1        3.878   0.250   0.024  0.00  0.00    +0.330 C 
ATOM     11  O   LIG    1        4.503  -0.787  -0.127  0.00  0.00    -0.246 OA
BRANCH  10  12
ATOM     12  O   LIG    1        4.436   1.472   0.190  0.00  0.00    -0.478 OA
ATOM     13  H   LIG    1        5.416   1.433   0.176  0.00  0.00    +0.295 HD
ENDBRANCH  10  12
ENDBRANCH   9  10
ENDBRANCH   7   8
BRANCH   4  14
ATOM     14  O   LIG    1       -3.986  -0.682   0.020  0.00  0.00    -0.503 OA
ATOM     15  H   LIG    1       -4.295  -1.582   0.223  0.00  0.00    +0.292 HD
ENDBRANCH   4  14
TORSDOF 5
