9823887
  -OEChem-06012202433D

 58 60  0     1  0  0  0  0  0999 V2000
    0.9551   -1.1959    0.5773 O   0  0  0  0  0  0  0  0  0  0  0  0
    3.3235    0.2066    0.2406 O   0  0  0  0  0  0  0  0  0  0  0  0
    3.6267    2.1858    1.5053 O   0  0  0  0  0  0  0  0  0  0  0  0
    4.0126   -3.2121    0.5912 O   0  0  0  0  0  0  0  0  0  0  0  0
    2.4266   -4.4161   -1.5041 O   0  0  0  0  0  0  0  0  0  0  0  0
   -1.2202   -1.6278   -0.1475 O   0  0  0  0  0  0  0  0  0  0  0  0
   -0.4413   -4.2567   -0.8479 O   0  0  0  0  0  0  0  0  0  0  0  0
    5.4825    2.9990   -0.6244 O   0  0  0  0  0  0  0  0  0  0  0  0
    2.1406    1.9988   -1.7041 O   0  0  0  0  0  0  0  0  0  0  0  0
    1.4036    4.3525   -0.4509 O   0  0  0  0  0  0  0  0  0  0  0  0
    2.1853   -1.7173    1.0832 C   0  0  1  0  0  0  0  0  0  0  0  0
    2.8312   -2.6345    0.0420 C   0  0  2  0  0  0  0  0  0  0  0  0
    1.8689   -3.7483   -0.3712 C   0  0  1  0  0  0  0  0  0  0  0  0
    0.4955   -3.1855   -0.7372 C   0  0  2  0  0  0  0  0  0  0  0  0
   -0.0105   -2.2154    0.3304 C   0  0  1  0  0  0  0  0  0  0  0  0
    3.0817   -0.5312    1.4246 C   0  0  0  0  0  0  0  0  0  0  0  0
    4.1579    1.3351    0.4834 C   0  0  2  0  0  0  0  0  0  0  0  0
    4.3917    2.1026   -0.8266 C   0  0  1  0  0  0  0  0  0  0  0  0
    3.1549    2.8982   -1.2584 C   0  0  2  0  0  0  0  0  0  0  0  0
    2.6209    3.7188   -0.0827 C   0  0  2  0  0  0  0  0  0  0  0  0
    2.4111    2.8337    1.1393 C   0  0  0  0  0  0  0  0  0  0  0  0
   -1.7546   -0.7099    0.7935 C   0  0  0  0  0  0  0  0  0  0  0  0
   -3.0157   -0.1310    0.2366 C   0  0  0  0  0  0  0  0  0  0  0  0
   -4.2060   -0.2318    0.8485 C   0  0  0  0  0  0  0  0  0  0  0  0
   -5.4696    0.3337    0.3468 C   0  0  0  0  0  0  0  0  0  0  0  0
   -5.5838    0.6560   -0.9964 C   0  0  0  0  0  0  0  0  0  0  0  0
   -6.5216    0.5334    1.2269 C   0  0  0  0  0  0  0  0  0  0  0  0
   -6.7807    1.1918   -1.4717 C   0  0  0  0  0  0  0  0  0  0  0  0
   -7.7185    1.0692    0.7514 C   0  0  0  0  0  0  0  0  0  0  0  0
   -7.8479    1.3984   -0.5980 C   0  0  0  0  0  0  0  0  0  0  0  0
    1.9895   -2.2664    2.0139 H   0  0  0  0  0  0  0  0  0  0  0  0
    3.1275   -2.0738   -0.8526 H   0  0  0  0  0  0  0  0  0  0  0  0
    1.7784   -4.5032    0.4195 H   0  0  0  0  0  0  0  0  0  0  0  0
    0.5345   -2.6958   -1.7175 H   0  0  0  0  0  0  0  0  0  0  0  0
   -0.2353   -2.7512    1.2628 H   0  0  0  0  0  0  0  0  0  0  0  0
    4.0286   -0.8726    1.8580 H   0  0  0  0  0  0  0  0  0  0  0  0
    2.5622    0.0950    2.1585 H   0  0  0  0  0  0  0  0  0  0  0  0
    5.1258    0.9740    0.8529 H   0  0  0  0  0  0  0  0  0  0  0  0
    4.6748    1.3989   -1.6176 H   0  0  0  0  0  0  0  0  0  0  0  0
    3.3869    3.5709   -2.0921 H   0  0  0  0  0  0  0  0  0  0  0  0
    3.3446    4.5059    0.1594 H   0  0  0  0  0  0  0  0  0  0  0  0
    1.6150    2.0971    0.9770 H   0  0  0  0  0  0  0  0  0  0  0  0
    2.0872    3.4443    1.9893 H   0  0  0  0  0  0  0  0  0  0  0  0
    3.7603   -3.7161    1.3837 H   0  0  0  0  0  0  0  0  0  0  0  0
    3.3022   -4.7497   -1.2434 H   0  0  0  0  0  0  0  0  0  0  0  0
   -0.4897   -4.7054    0.0134 H   0  0  0  0  0  0  0  0  0  0  0  0
    5.3196    3.5013    0.1916 H   0  0  0  0  0  0  0  0  0  0  0  0
    2.5036    1.4967   -2.4536 H   0  0  0  0  0  0  0  0  0  0  0  0
   -1.9370   -1.2203    1.7466 H   0  0  0  0  0  0  0  0  0  0  0  0
   -1.0531    0.1139    0.9679 H   0  0  0  0  0  0  0  0  0  0  0  0
    1.0931    4.8609    0.3176 H   0  0  0  0  0  0  0  0  0  0  0  0
   -2.8988    0.4127   -0.6959 H   0  0  0  0  0  0  0  0  0  0  0  0
   -4.2693   -0.7591    1.7979 H   0  0  0  0  0  0  0  0  0  0  0  0
   -4.7882    0.4920   -1.7161 H   0  0  0  0  0  0  0  0  0  0  0  0
   -6.4358    0.2833    2.2810 H   0  0  0  0  0  0  0  0  0  0  0  0
   -6.8840    1.4436   -2.5232 H   0  0  0  0  0  0  0  0  0  0  0  0
   -8.5498    1.2302    1.4316 H   0  0  0  0  0  0  0  0  0  0  0  0
   -8.7803    1.8145   -0.9684 H   0  0  0  0  0  0  0  0  0  0  0  0
  1 11  1  0  0  0  0
  1 15  1  0  0  0  0
  2 16  1  0  0  0  0
  2 17  1  0  0  0  0
  3 17  1  0  0  0  0
  3 21  1  0  0  0  0
  4 12  1  0  0  0  0
  4 44  1  0  0  0  0
  5 13  1  0  0  0  0
  5 45  1  0  0  0  0
  6 15  1  0  0  0  0
  6 22  1  0  0  0  0
  7 14  1  0  0  0  0
  7 46  1  0  0  0  0
  8 18  1  0  0  0  0
  8 47  1  0  0  0  0
  9 19  1  0  0  0  0
  9 48  1  0  0  0  0
 10 20  1  0  0  0  0
 10 51  1  0  0  0  0
 11 12  1  0  0  0  0
 11 16  1  0  0  0  0
 11 31  1  0  0  0  0
 12 13  1  0  0  0  0
 12 32  1  0  0  0  0
 13 14  1  0  0  0  0
 13 33  1  0  0  0  0
 14 15  1  0  0  0  0
 14 34  1  0  0  0  0
 15 35  1  0  0  0  0
 16 36  1  0  0  0  0
 16 37  1  0  0  0  0
 17 18  1  0  0  0  0
 17 38  1  0  0  0  0
 18 19  1  0  0  0  0
 18 39  1  0  0  0  0
 19 20  1  0  0  0  0
 19 40  1  0  0  0  0
 20 21  1  0  0  0  0
 20 41  1  0  0  0  0
 21 42  1  0  0  0  0
 21 43  1  0  0  0  0
 22 23  1  0  0  0  0
 22 49  1  0  0  0  0
 22 50  1  0  0  0  0
 23 24  2  0  0  0  0
 23 52  1  0  0  0  0
 24 25  1  0  0  0  0
 24 53  1  0  0  0  0
 25 26  2  0  0  0  0
 25 27  1  0  0  0  0
 26 28  1  0  0  0  0
 26 54  1  0  0  0  0
 27 29  2  0  0  0  0
 27 55  1  0  0  0  0
 28 30  2  0  0  0  0
 28 56  1  0  0  0  0
 29 30  1  0  0  0  0
 29 57  1  0  0  0  0
 30 58  1  0  0  0  0
M  END
> <PUBCHEM_COMPOUND_CID>
9823887

> <PUBCHEM_CONFORMER_RMSD>
1

> <PUBCHEM_CONFORMER_DIVERSEORDER>
1
113
144
27
31
149
36
155
45
87
5
120
78
52
70
107
118
16
127
145
50
51
106
130
94
63
58
74
91
24
157
129
141
140
46
79
86
111
47
20
81
114
137
162
165
142
143
138
62
89
68
44
124
40
117
134
76
39
109
110
112
64
96
156
2
18
67
73
153
80
38
148
54
146
164
163
167
97
8
28
33
98
14
35
101
151
161
82
34
49
122
4
66
92
128
23
108
30
90
6
123
132
29
104
150
61
131
126
93
103
159
72
43
13
121
69
133
11
3
102
154
37
166
42
105
15
85
75
25
21
119
160
32
7
17
26
125
158
55
22
57
12
99
41
84
77
95
48
71
136
65
116
139
83
115
9
147
152
10
60
59
53
19
88
56
135
100

> <PUBCHEM_MMFF94_PARTIAL_CHARGES>
43
1 -0.56
10 -0.68
11 0.28
12 0.28
13 0.28
14 0.28
15 0.56
16 0.28
17 0.56
18 0.28
19 0.28
2 -0.56
20 0.28
21 0.28
22 0.42
23 -0.29
24 -0.18
25 0.03
26 -0.15
27 -0.15
28 -0.15
29 -0.15
3 -0.56
30 -0.15
4 -0.68
44 0.4
45 0.4
46 0.4
47 0.4
48 0.4
5 -0.68
51 0.4
52 0.15
53 0.15
54 0.15
55 0.15
56 0.15
57 0.15
58 0.15
6 -0.56
7 -0.68
8 -0.68
9 -0.68

> <PUBCHEM_EFFECTIVE_ROTOR_COUNT>
9.4

> <PUBCHEM_PHARMACOPHORE_FEATURES>
19
1 1 acceptor
1 10 acceptor
1 10 donor
1 2 acceptor
1 3 acceptor
1 4 acceptor
1 4 donor
1 5 acceptor
1 5 donor
1 6 acceptor
1 7 acceptor
1 7 donor
1 8 acceptor
1 8 donor
1 9 acceptor
1 9 donor
6 1 11 12 13 14 15 rings
6 25 26 27 28 29 30 rings
6 3 17 18 19 20 21 rings

> <PUBCHEM_HEAVY_ATOM_COUNT>
30

> <PUBCHEM_ATOM_DEF_STEREO_COUNT>
9

> <PUBCHEM_ATOM_UDEF_STEREO_COUNT>
0

> <PUBCHEM_BOND_DEF_STEREO_COUNT>
1

> <PUBCHEM_BOND_UDEF_STEREO_COUNT>
0

> <PUBCHEM_ISOTOPIC_ATOM_COUNT>
0

> <PUBCHEM_COMPONENT_COUNT>
1

> <PUBCHEM_CACTVS_TAUTO_COUNT>
1

> <PUBCHEM_CONFORMER_ID>
0095E68F00000001

> <PUBCHEM_MMFF94_ENERGY>
85.5552

> <PUBCHEM_FEATURE_SELFOVERLAP>
96.545

> <PUBCHEM_SHAPE_FINGERPRINT>
10483366 6 18339380591164960214
10673678 19 18412829114240024411
10675989 125 18341050816977378025
10937287 8 18123751117264642874
11505856 67 17468491750811638686
12422481 6 17676197001276128997
12539745 222 16809535342127152706
13878862 14 18189877791190475493
13944108 23 18335704922744694356
14117953 113 18411697669440777100
14251764 75 18191029112682396885
14294032 229 18124884713737737947
14790565 3 18051977210265122467
15419008 47 17823699651274596903
16988056 13 18339926991791946086
16992727 255 17899149488347257348
17810953 82 18335701671511849841
19427546 62 18411980252604329659
1979834 28 18333450950056839421
21716022 299 14978292201076647975
23522609 53 17417826002787307577
23559900 14 18341332189544500451
3044373 193 18260831476002489739
3388396 114 16105859435946445548
3411729 13 18114184154801005265
394071 54 18336551525950310417
397830 11 18113912580763240187
44880568 143 18189887627641977933
46194498 28 18336543799145804591
5109719 28 18260556615433631745
513532 50 18059862748798061212
6609424 69 17895747383672026749

> <PUBCHEM_SHAPE_MULTIPOLES>
558.69
17
5.93
1.38
42.75
2.07
-0.1
-12.48
-0.51
-10.97
-2.07
0.03
-0.24
0.05

> <PUBCHEM_SHAPE_SELFOVERLAP>
1164.883

> <PUBCHEM_SHAPE_VOLUME>
311.5

> <PUBCHEM_COORDINATE_TYPE>
2
5
10

$$$$
